Circuit: * C:\Users\Artem\Desktop\ANALOG\LAB2\Draft2.asc

.OP point found by inspection.

Date: Fri May 29 11:24:59 2020
Total elapsed time: 0.178 seconds.

tnom = 27
temp = 27
method = modified trap
totiter = 2419
traniter = 2419
tranpoints = 1141
accept = 1107
rejected = 34
matrix size = 4
fillins = 0
solver = Normal
Matrix Compiler1: 100 bytes object code size  0.1/0.1/[0.1]
Matrix Compiler2: 248 bytes object code size  0.1/0.1/[0.1]

