Circuit: * C:\Users\Artem\Desktop\ANALOG\LAB2\Draft5.asc

.OP point found by inspection.

Date: Thu May 28 20:56:34 2020
Total elapsed time: 0.043 seconds.

tnom = 27
temp = 27
method = modified trap
totiter = 2200
traniter = 2200
tranpoints = 1042
accept = 1042
rejected = 0
matrix size = 5
fillins = 0
solver = Normal
Matrix Compiler1: 150 bytes object code size  0.1/0.1/[0.0]
Matrix Compiler2: 321 bytes object code size  0.1/0.1/[0.1]

