Circuit: * C:\Users\Artem\Desktop\ANALOG\LAB2\Draft1.asc

Error on line 2 : m1 n001 n001 0 nc_01 2n7000
	 Unable to find definition of model ""
WARNING: Node NC_01 is floating.

.OP point found by inspection.

Date: Sun May 17 01:56:41 2020
Total elapsed time: 1.315 seconds.

tnom = 27
temp = 27
method = trap
totiter = 87
traniter = 0
tranpoints = 0
accept = 0
rejected = 0
matrix size = 3
fillins = 0
solver = Normal
Matrix Compiler1: 86 bytes object code size
Matrix Compiler2: 163 bytes object code size
