Circuit: * C:\Users\Artem\Desktop\ANALOG\LAB2\Draft6.asc

Error on line 4 : m2 n001 n002 0 nc_01 2n7000
	 Unable to find definition of model ""
WARNING: Node NC_01 is floating.

.step v1=1.7
.step v1=1.8
.step v1=1.9
.step v1=2
.step v1=2.1

Date: Sun May 17 02:12:48 2020
Total elapsed time: 7.679 seconds.

tnom = 27
temp = 27
method = trap
totiter = 1025
traniter = 0
tranpoints = 0
accept = 0
rejected = 0
matrix size = 6
fillins = 2
solver = Normal
Matrix Compiler1:      20 opcodes  0.1/[0.1]/0.1
Matrix Compiler2: off  [0.1]/0.1/0.1

